
This summary file was generated by TurbSim (from OpenFAST-v3.2.1) on 12-Dec-2023 at 15:26:47.


Runtime Options:

    511340  Random seed #1
    RANLUX  Type of random number generator
         F  Output binary HH turbulence parameters?
         F  Output formatted turbulence parameters?
         F  Output AeroDyn HH files?
         T  Output AeroDyn FF files?
         F  Output BLADED FF files?
         T  Output tower data?
         F  Output HAWC FF files?
         F  Output formatted FF files?
         T  Output coherent turbulence time step file?
 0 -  NONE  IEC turbulence models scaled to exact specified standard deviation


Turbine/Model Specifications:

        21  Vertical grid-point matrix dimension
        21  Horizontal grid-point matrix dimension
     0.050  Time step [seconds]
    60.000  Analysis time [seconds]
    60.000  Usable output time [seconds]
    90.000  Hub height [m]
   155.000  Grid height [m]
   155.000  Grid width [m]
     0.000  Vertical flow angle [degrees]
     0.000  Horizontal flow angle [degrees]


Meteorological Boundary Conditions:

    IECKAI  IEC Kaimal spectral model
         1  IEC standard: IEC 61400-1 Ed. 3: 2005
         B  IEC turbulence characteristic
       NTM  IEC Normal Turbulence Model
       N/A  IEC Extreme Turbulence Model (ETM) "c" parameter [m/s]
       PL   Wind profile type
    90.000  Reference height [m]
     8.000  Reference wind speed [m/s]
       N/A  Jet height [m]
     0.200  Power law exponent
     0.030  Surface roughness length [m]


Non-IEC Meteorological Boundary Conditions:

       N/A  Site latitude [degrees]
       N/A  Gradient Richardson number
       N/A  Friction or shear velocity [m/s]
       N/A  Mixing layer depth [m]
       N/A  Mean hub u'w' Reynolds stress
       N/A  Mean hub u'v' Reynolds stress
       N/A  Mean hub v'w' Reynolds stress


Spatial Coherence Models:

       IEC  u-component coherence model
      NONE  v-component coherence model
      NONE  w-component coherence model
(   12.000, 0.353E-03)  u-component coherence parameters
                   N/A  v-component coherence parameters
                   N/A  w-component coherence parameters
       N/A  Coherence exponent


You have requested that the following file(s) be generated:

   .\TurbSimBox_5MW_8mps.bts (AeroDyn/TurbSim full-field wind file)


Turbulence Simulation Scaling Parameter Summary:

   Turbulence model used                            =  IEC Kaimal
   Turbulence characteristic                        =  B
   IEC turbulence type                              =  Normal Turbulence Model
   IEC standard                                     =  IEC 61400-1 Ed. 3: 2005
   Mean wind speed at hub height                    =    8.000 m/s
   Expected value of turbulence intensity at 15 m/s =   14.000%
   Characteristic value of standard deviation       =    1.624 m/s
   Turbulence scale                                 =   42.000 m
   u-component integral scale                       =  340.200 m
   Coherency scale                                  =  340.200 m
   Characteristic value of hub turbulence intensity =   20.300%
   Gradient Richardson number                       =    0.000

   Wind profile type                                =  Power law
   Power law exponent                               =    0.200
   Mean shear across rotor disk                     =    0.024 (m/s)/m
   Assumed rotor diameter                           =  155.000 m
   Surface roughness length                         =    0.030 m

   Nyquist frequency of turbulent wind field        =   10.000 Hz

   Number of time steps in the FFT                  =     1200
   Number of time steps output                      =     1200
   Number of points simulated                       =      442


Mean Flow Angles:

   Vertical   =   0.0 degrees
   Horizontal =   0.0 degrees

Mean Wind Speed Profile:

   Height    Wind Speed   Horizontal Angle  Vertical Angle  U-comp (X)   V-comp (Y)   W-comp (Z)
     (m)        (m/s)         (degrees)       (degrees)       (m/s)        (m/s)        (m/s)   
   ------    ----------   ----------------  --------------  ----------   ----------   ----------
    167.5        9.06            0.00            0.00          9.06         0.00         0.00
    159.8        8.97            0.00            0.00          8.97         0.00         0.00
    152.0        8.88            0.00            0.00          8.88         0.00         0.00
    144.2        8.79            0.00            0.00          8.79         0.00         0.00
    136.5        8.69            0.00            0.00          8.69         0.00         0.00
    128.8        8.59            0.00            0.00          8.59         0.00         0.00
    121.0        8.49            0.00            0.00          8.49         0.00         0.00
    113.2        8.38            0.00            0.00          8.38         0.00         0.00
    105.5        8.26            0.00            0.00          8.26         0.00         0.00
     97.8        8.13            0.00            0.00          8.13         0.00         0.00
     90.0        8.00            0.00            0.00          8.00         0.00         0.00
     82.2        7.86            0.00            0.00          7.86         0.00         0.00
     74.5        7.70            0.00            0.00          7.70         0.00         0.00
     66.8        7.54            0.00            0.00          7.54         0.00         0.00
     59.0        7.35            0.00            0.00          7.35         0.00         0.00
     51.2        7.15            0.00            0.00          7.15         0.00         0.00
     43.5        6.92            0.00            0.00          6.92         0.00         0.00
     35.8        6.65            0.00            0.00          6.65         0.00         0.00
     28.0        6.33            0.00            0.00          6.33         0.00         0.00
     20.2        5.94            0.00            0.00          5.94         0.00         0.00
     12.5        5.39            0.00            0.00          5.39         0.00         0.00
      4.8        4.44            0.00            0.00          4.44         0.00         0.00


Harvested Random Seeds after Generation of the Random Numbers:

      7392450 K 1
            0 K 2


Hub-Height Simulated Turbulence Statistical Summary:

   Type of Wind        Min (m/s)   Mean (m/s)    Max (m/s)  Sigma (m/s)       TI (%)
   ----------------    ---------   ----------    ---------  -----------       ------
   Longitudinal (u)         4.56         8.00        10.42        1.048       13.097
   Lateral (v)             -2.58        -0.00         2.69        1.063       13.287
   Vertical (w)            -2.02        -0.00         2.57        0.756        9.451
   U component              4.56         8.00        10.42        1.048       13.097
   V component             -2.58        -0.00         2.69        1.063       13.287
   W component             -2.02        -0.00         2.57        0.756        9.451
   Horizontal (U&V)         4.61         8.07        10.43        1.054       13.060
   Total                    4.63         8.11        10.43        1.053       12.988

                       Min Reynolds     Mean Reynolds    Max Reynolds    Correlation
   Product             Stress (m/s)^2   Stress (m/s)^2   Stress (m/s)^2  Coefficient
   ----------------    --------------   --------------   --------------  -----------
   u'w'                     -2.626             0.049             3.557         0.062
   u'v'                     -4.666            -0.350             3.200        -0.315
   v'w'                     -4.046            -0.062             2.158        -0.077


   Friction Velocity (Ustar)  =      0.222 m/s
   Maximum Instantaneous TKE  =      6.211 (m/s)^2
   Maximum Instantaneous CTKE =      2.783 (m/s)^2


Grid Point Variance Summary:

   Y-coord  -77.50  -69.75  -62.00  -54.25  -46.50  -38.75  -31.00  -23.25  -15.50   -7.75    0.00    7.75   15.50   23.25   31.00   38.75   46.50   54.25   62.00   69.75   77.50

   Height   Standard deviation at grid points for the u component:
   167.50    1.345   1.498   1.047   1.101   1.189   0.871   0.865   1.091   1.193   0.817   0.822   0.742   0.920   1.302   1.494   1.473   1.199   0.844   0.717   0.892   1.079
   159.75    0.949   1.269   1.177   1.156   1.031   0.964   1.001   0.921   1.032   1.096   0.879   0.882   1.037   1.168   1.247   1.129   0.836   0.706   0.677   0.854   0.863
   152.00    0.852   1.235   1.360   0.926   0.884   1.049   1.149   1.058   1.000   0.945   1.039   0.945   1.093   1.129   1.144   0.796   0.922   0.938   0.940   0.910   0.851
   144.25    0.997   1.371   1.453   0.916   0.971   0.771   1.146   0.920   1.098   1.022   0.893   0.714   0.935   1.266   1.384   0.933   0.845   0.832   1.061   1.096   0.843
   136.50    1.133   1.200   1.222   1.205   0.830   1.063   1.056   0.866   0.815   1.014   0.675   0.838   0.701   1.007   1.215   0.980   0.918   1.252   0.998   1.245   1.035
   128.75    0.968   1.088   1.076   0.848   1.078   1.056   0.960   0.853   0.834   0.732   0.902   0.764   0.913   0.764   1.115   1.132   1.065   1.038   1.259   1.298   1.285
   121.00    1.145   1.094   0.985   1.122   1.171   1.012   0.964   0.852   0.731   0.743   0.845   0.697   0.929   0.905   1.151   1.111   1.241   1.067   1.267   1.252   1.247
   113.25    1.438   1.143   1.072   1.429   1.123   0.971   0.900   0.964   0.800   0.836   0.928   1.047   1.185   1.002   1.047   1.137   1.149   1.266   1.262   1.153   1.188
   105.50    1.273   1.302   1.517   1.540   1.362   1.333   0.935   0.974   1.091   1.095   0.921   1.073   1.175   1.136   1.024   1.155   1.305   1.301   1.240   0.926   1.231
    97.75    1.815   1.787   1.502   1.185   1.358   1.278   1.072   1.024   1.397   1.060   1.011   0.927   0.842   1.264   1.226   1.025   1.012   0.869   0.991   1.121   1.202
    90.00    1.622   1.815   1.134   1.468   1.460   1.631   1.282   1.063   1.220   1.239   1.048   0.910   1.086   1.264   1.323   1.315   1.149   0.791   0.793   1.157   1.296
    82.25    1.749   1.718   1.190   1.298   1.383   1.306   1.497   1.572   0.999   1.050   1.129   0.992   0.963   1.107   1.151   1.035   0.909   0.983   0.995   1.043   1.068
    74.50    1.603   1.524   1.234   1.220   1.422   1.455   1.662   1.407   1.215   0.873   1.147   0.864   1.005   1.062   1.058   0.989   0.800   0.923   0.994   0.938   1.048
    66.75    1.501   1.311   1.089   1.170   1.227   1.419   1.593   1.107   0.979   0.748   1.045   0.952   1.125   1.118   1.129   1.046   0.844   0.778   1.013   1.129   1.261
    59.00    1.265   1.103   1.348   1.243   1.368   1.473   1.182   1.234   1.157   1.239   1.096   1.045   0.997   1.203   0.982   0.916   0.985   0.739   0.792   0.844   1.014
    51.25    1.033   1.354   1.389   1.442   1.175   1.140   1.309   1.057   0.848   1.134   1.148   1.110   0.806   0.977   1.008   0.980   1.225   1.029   0.761   0.805   0.848
    43.50    1.503   1.404   1.139   1.217   1.316   1.090   1.194   1.143   1.272   1.237   0.957   0.963   0.824   0.798   0.802   1.107   1.208   1.203   0.953   0.913   1.082
    35.75    1.351   1.163   1.227   1.342   1.373   1.207   1.097   1.046   0.984   0.983   0.703   0.757   0.890   0.785   0.902   1.153   1.199   1.205   1.071   0.962   0.978
    28.00    1.274   1.317   1.396   1.314   1.093   0.981   1.166   0.860   0.738   0.861   0.828   0.871   0.720   0.803   0.933   1.142   0.919   0.782   1.183   1.122   1.244
    20.25    0.996   1.351   1.321   0.920   0.924   1.197   1.020   0.846   0.744   0.837   0.956   0.951   0.658   1.185   1.087   0.997   0.853   1.177   1.219   1.042   0.991
    12.50    1.069   1.304   1.132   1.093   0.879   1.101   1.108   0.711   0.798   0.695   0.935   1.105   1.079   1.219   1.086   0.906   0.800   0.936   1.131   0.892   0.912

   Height   Standard deviation at grid points for the v component:
   167.50    1.063   1.063   1.063   1.063   1.063   1.063   1.063   1.063   1.063   1.063   1.063   1.063   1.063   1.063   1.063   1.063   1.063   1.063   1.063   1.063   1.063
   159.75    1.063   1.063   1.063   1.063   1.063   1.063   1.063   1.063   1.063   1.063   1.063   1.063   1.063   1.063   1.063   1.063   1.063   1.063   1.063   1.063   1.063
   152.00    1.063   1.063   1.063   1.063   1.063   1.063   1.063   1.063   1.063   1.063   1.063   1.063   1.063   1.063   1.063   1.063   1.063   1.063   1.063   1.063   1.063
   144.25    1.063   1.063   1.063   1.063   1.063   1.063   1.063   1.063   1.063   1.063   1.063   1.063   1.063   1.063   1.063   1.063   1.063   1.063   1.063   1.063   1.063
   136.50    1.063   1.063   1.063   1.063   1.063   1.063   1.063   1.063   1.063   1.063   1.063   1.063   1.063   1.063   1.063   1.063   1.063   1.063   1.063   1.063   1.063
   128.75    1.063   1.063   1.063   1.063   1.063   1.063   1.063   1.063   1.063   1.063   1.063   1.063   1.063   1.063   1.063   1.063   1.063   1.063   1.063   1.063   1.063
   121.00    1.063   1.063   1.063   1.063   1.063   1.063   1.063   1.063   1.063   1.063   1.063   1.063   1.063   1.063   1.063   1.063   1.063   1.063   1.063   1.063   1.063
   113.25    1.063   1.063   1.063   1.063   1.063   1.063   1.063   1.063   1.063   1.063   1.063   1.063   1.063   1.063   1.063   1.063   1.063   1.063   1.063   1.063   1.063
   105.50    1.063   1.063   1.063   1.063   1.063   1.063   1.063   1.063   1.063   1.063   1.063   1.063   1.063   1.063   1.063   1.063   1.063   1.063   1.063   1.063   1.063
    97.75    1.063   1.063   1.063   1.063   1.063   1.063   1.063   1.063   1.063   1.063   1.063   1.063   1.063   1.063   1.063   1.063   1.063   1.063   1.063   1.063   1.063
    90.00    1.063   1.063   1.063   1.063   1.063   1.063   1.063   1.063   1.063   1.063   1.063   1.063   1.063   1.063   1.063   1.063   1.063   1.063   1.063   1.063   1.063
    82.25    1.063   1.063   1.063   1.063   1.063   1.063   1.063   1.063   1.063   1.063   1.063   1.063   1.063   1.063   1.063   1.063   1.063   1.063   1.063   1.063   1.063
    74.50    1.063   1.063   1.063   1.063   1.063   1.063   1.063   1.063   1.063   1.063   1.063   1.063   1.063   1.063   1.063   1.063   1.063   1.063   1.063   1.063   1.063
    66.75    1.063   1.063   1.063   1.063   1.063   1.063   1.063   1.063   1.063   1.063   1.063   1.063   1.063   1.063   1.063   1.063   1.063   1.063   1.063   1.063   1.063
    59.00    1.063   1.063   1.063   1.063   1.063   1.063   1.063   1.063   1.063   1.063   1.063   1.063   1.063   1.063   1.063   1.063   1.063   1.063   1.063   1.063   1.063
    51.25    1.063   1.063   1.063   1.063   1.063   1.063   1.063   1.063   1.063   1.063   1.063   1.063   1.063   1.063   1.063   1.063   1.063   1.063   1.063   1.063   1.063
    43.50    1.063   1.063   1.063   1.063   1.063   1.063   1.063   1.063   1.063   1.063   1.063   1.063   1.063   1.063   1.063   1.063   1.063   1.063   1.063   1.063   1.063
    35.75    1.063   1.063   1.063   1.063   1.063   1.063   1.063   1.063   1.063   1.063   1.063   1.063   1.063   1.063   1.063   1.063   1.063   1.063   1.063   1.063   1.063
    28.00    1.063   1.063   1.063   1.063   1.063   1.063   1.063   1.063   1.063   1.063   1.063   1.063   1.063   1.063   1.063   1.063   1.063   1.063   1.063   1.063   1.063
    20.25    1.063   1.063   1.063   1.063   1.063   1.063   1.063   1.063   1.063   1.063   1.063   1.063   1.063   1.063   1.063   1.063   1.063   1.063   1.063   1.063   1.063
    12.50    1.063   1.063   1.063   1.063   1.063   1.063   1.063   1.063   1.063   1.063   1.063   1.063   1.063   1.063   1.063   1.063   1.063   1.063   1.063   1.063   1.063

   Height   Standard deviation at grid points for the w component:
   167.50    0.756   0.756   0.756   0.756   0.756   0.756   0.756   0.756   0.756   0.756   0.756   0.756   0.756   0.756   0.756   0.756   0.756   0.756   0.756   0.756   0.756
   159.75    0.756   0.756   0.756   0.756   0.756   0.756   0.756   0.756   0.756   0.756   0.756   0.756   0.756   0.756   0.756   0.756   0.756   0.756   0.756   0.756   0.756
   152.00    0.756   0.756   0.756   0.756   0.756   0.756   0.756   0.756   0.756   0.756   0.756   0.756   0.756   0.756   0.756   0.756   0.756   0.756   0.756   0.756   0.756
   144.25    0.756   0.756   0.756   0.756   0.756   0.756   0.756   0.756   0.756   0.756   0.756   0.756   0.756   0.756   0.756   0.756   0.756   0.756   0.756   0.756   0.756
   136.50    0.756   0.756   0.756   0.756   0.756   0.756   0.756   0.756   0.756   0.756   0.756   0.756   0.756   0.756   0.756   0.756   0.756   0.756   0.756   0.756   0.756
   128.75    0.756   0.756   0.756   0.756   0.756   0.756   0.756   0.756   0.756   0.756   0.756   0.756   0.756   0.756   0.756   0.756   0.756   0.756   0.756   0.756   0.756
   121.00    0.756   0.756   0.756   0.756   0.756   0.756   0.756   0.756   0.756   0.756   0.756   0.756   0.756   0.756   0.756   0.756   0.756   0.756   0.756   0.756   0.756
   113.25    0.756   0.756   0.756   0.756   0.756   0.756   0.756   0.756   0.756   0.756   0.756   0.756   0.756   0.756   0.756   0.756   0.756   0.756   0.756   0.756   0.756
   105.50    0.756   0.756   0.756   0.756   0.756   0.756   0.756   0.756   0.756   0.756   0.756   0.756   0.756   0.756   0.756   0.756   0.756   0.756   0.756   0.756   0.756
    97.75    0.756   0.756   0.756   0.756   0.756   0.756   0.756   0.756   0.756   0.756   0.756   0.756   0.756   0.756   0.756   0.756   0.756   0.756   0.756   0.756   0.756
    90.00    0.756   0.756   0.756   0.756   0.756   0.756   0.756   0.756   0.756   0.756   0.756   0.756   0.756   0.756   0.756   0.756   0.756   0.756   0.756   0.756   0.756
    82.25    0.756   0.756   0.756   0.756   0.756   0.756   0.756   0.756   0.756   0.756   0.756   0.756   0.756   0.756   0.756   0.756   0.756   0.756   0.756   0.756   0.756
    74.50    0.756   0.756   0.756   0.756   0.756   0.756   0.756   0.756   0.756   0.756   0.756   0.756   0.756   0.756   0.756   0.756   0.756   0.756   0.756   0.756   0.756
    66.75    0.756   0.756   0.756   0.756   0.756   0.756   0.756   0.756   0.756   0.756   0.756   0.756   0.756   0.756   0.756   0.756   0.756   0.756   0.756   0.756   0.756
    59.00    0.756   0.756   0.756   0.756   0.756   0.756   0.756   0.756   0.756   0.756   0.756   0.756   0.756   0.756   0.756   0.756   0.756   0.756   0.756   0.756   0.756
    51.25    0.756   0.756   0.756   0.756   0.756   0.756   0.756   0.756   0.756   0.756   0.756   0.756   0.756   0.756   0.756   0.756   0.756   0.756   0.756   0.756   0.756
    43.50    0.756   0.756   0.756   0.756   0.756   0.756   0.756   0.756   0.756   0.756   0.756   0.756   0.756   0.756   0.756   0.756   0.756   0.756   0.756   0.756   0.756
    35.75    0.756   0.756   0.756   0.756   0.756   0.756   0.756   0.756   0.756   0.756   0.756   0.756   0.756   0.756   0.756   0.756   0.756   0.756   0.756   0.756   0.756
    28.00    0.756   0.756   0.756   0.756   0.756   0.756   0.756   0.756   0.756   0.756   0.756   0.756   0.756   0.756   0.756   0.756   0.756   0.756   0.756   0.756   0.756
    20.25    0.756   0.756   0.756   0.756   0.756   0.756   0.756   0.756   0.756   0.756   0.756   0.756   0.756   0.756   0.756   0.756   0.756   0.756   0.756   0.756   0.756
    12.50    0.756   0.756   0.756   0.756   0.756   0.756   0.756   0.756   0.756   0.756   0.756   0.756   0.756   0.756   0.756   0.756   0.756   0.756   0.756   0.756   0.756

   Mean standard deviation across all grid points:
      u component:    1.082 m/s
      v component:    1.063 m/s
      w component:    0.756 m/s


U-component (X) statistics from the interpolated hub point:

   Mean =   8.0000 m/s
   TI   =  13.0971 %


Processing complete.  1.7031 CPU seconds used.
